* NGSPICE file created from mult_32.ext - technology: sky130A

* Black-box entry subcircuit for sky130_fd_sc_hd__inv_2 abstract view
.subckt sky130_fd_sc_hd__inv_2 A VGND VNB VPB VPWR Y
.ends

* Black-box entry subcircuit for sky130_fd_sc_hd__fill_2 abstract view
.subckt sky130_fd_sc_hd__fill_2 VGND VNB VPB VPWR
.ends

* Black-box entry subcircuit for sky130_fd_sc_hd__fill_1 abstract view
.subckt sky130_fd_sc_hd__fill_1 VGND VNB VPB VPWR
.ends

* Black-box entry subcircuit for sky130_fd_sc_hd__dfxtp_1 abstract view
.subckt sky130_fd_sc_hd__dfxtp_1 CLK D VGND VNB VPB VPWR Q
.ends

* Black-box entry subcircuit for sky130_fd_sc_hd__tapvpwrvgnd_1 abstract view
.subckt sky130_fd_sc_hd__tapvpwrvgnd_1 VGND VPWR
.ends

* Black-box entry subcircuit for sky130_fd_sc_hd__decap_4 abstract view
.subckt sky130_fd_sc_hd__decap_4 VGND VNB VPB VPWR
.ends

* Black-box entry subcircuit for sky130_fd_sc_hd__o21a_1 abstract view
.subckt sky130_fd_sc_hd__o21a_1 A1 A2 B1 VGND VNB VPB VPWR X
.ends

* Black-box entry subcircuit for sky130_fd_sc_hd__nor3_1 abstract view
.subckt sky130_fd_sc_hd__nor3_1 A B C VGND VNB VPB VPWR Y
.ends

* Black-box entry subcircuit for sky130_ef_sc_hd__decap_12 abstract view
.subckt sky130_ef_sc_hd__decap_12 VPWR VGND VPB VNB
.ends

* Black-box entry subcircuit for sky130_fd_sc_hd__nor2_1 abstract view
.subckt sky130_fd_sc_hd__nor2_1 A B VGND VNB VPB VPWR Y
.ends

* Black-box entry subcircuit for sky130_fd_sc_hd__a41o_1 abstract view
.subckt sky130_fd_sc_hd__a41o_1 A1 A2 A3 A4 B1 VGND VNB VPB VPWR X
.ends

* Black-box entry subcircuit for sky130_fd_sc_hd__and2_1 abstract view
.subckt sky130_fd_sc_hd__and2_1 A B VGND VNB VPB VPWR X
.ends

* Black-box entry subcircuit for sky130_fd_sc_hd__decap_6 abstract view
.subckt sky130_fd_sc_hd__decap_6 VGND VNB VPB VPWR
.ends

* Black-box entry subcircuit for sky130_fd_sc_hd__decap_3 abstract view
.subckt sky130_fd_sc_hd__decap_3 VGND VNB VPB VPWR
.ends

* Black-box entry subcircuit for sky130_fd_sc_hd__and3_1 abstract view
.subckt sky130_fd_sc_hd__and3_1 A B C VGND VNB VPB VPWR X
.ends

* Black-box entry subcircuit for sky130_fd_sc_hd__a211oi_1 abstract view
.subckt sky130_fd_sc_hd__a211oi_1 A1 A2 B1 C1 VGND VNB VPB VPWR Y
.ends

* Black-box entry subcircuit for sky130_fd_sc_hd__clkbuf_16 abstract view
.subckt sky130_fd_sc_hd__clkbuf_16 A VGND VNB VPB VPWR X
.ends

* Black-box entry subcircuit for sky130_fd_sc_hd__nand2_1 abstract view
.subckt sky130_fd_sc_hd__nand2_1 A B VGND VNB VPB VPWR Y
.ends

* Black-box entry subcircuit for sky130_fd_sc_hd__dlygate4sd3_1 abstract view
.subckt sky130_fd_sc_hd__dlygate4sd3_1 A VGND VNB VPB VPWR X
.ends

* Black-box entry subcircuit for sky130_fd_sc_hd__a21o_1 abstract view
.subckt sky130_fd_sc_hd__a21o_1 A1 A2 B1 VGND VNB VPB VPWR X
.ends

* Black-box entry subcircuit for sky130_fd_sc_hd__buf_2 abstract view
.subckt sky130_fd_sc_hd__buf_2 A VGND VNB VPB VPWR X
.ends

* Black-box entry subcircuit for sky130_fd_sc_hd__clkbuf_4 abstract view
.subckt sky130_fd_sc_hd__clkbuf_4 A VGND VNB VPB VPWR X
.ends

* Black-box entry subcircuit for sky130_fd_sc_hd__decap_8 abstract view
.subckt sky130_fd_sc_hd__decap_8 VGND VNB VPB VPWR
.ends

* Black-box entry subcircuit for sky130_fd_sc_hd__or4b_4 abstract view
.subckt sky130_fd_sc_hd__or4b_4 A B C D_N VGND VNB VPB VPWR X
.ends

* Black-box entry subcircuit for sky130_fd_sc_hd__a21boi_1 abstract view
.subckt sky130_fd_sc_hd__a21boi_1 A1 A2 B1_N VGND VNB VPB VPWR Y
.ends

* Black-box entry subcircuit for sky130_fd_sc_hd__o211a_1 abstract view
.subckt sky130_fd_sc_hd__o211a_1 A1 A2 B1 C1 VGND VNB VPB VPWR X
.ends

* Black-box entry subcircuit for sky130_fd_sc_hd__a22o_1 abstract view
.subckt sky130_fd_sc_hd__a22o_1 A1 A2 B1 B2 VGND VNB VPB VPWR X
.ends

* Black-box entry subcircuit for sky130_fd_sc_hd__xnor2_1 abstract view
.subckt sky130_fd_sc_hd__xnor2_1 A B VGND VNB VPB VPWR Y
.ends

* Black-box entry subcircuit for sky130_fd_sc_hd__o21ai_1 abstract view
.subckt sky130_fd_sc_hd__o21ai_1 A1 A2 B1 VGND VNB VPB VPWR Y
.ends

* Black-box entry subcircuit for sky130_fd_sc_hd__or3_1 abstract view
.subckt sky130_fd_sc_hd__or3_1 A B C VGND VNB VPB VPWR X
.ends

* Black-box entry subcircuit for sky130_fd_sc_hd__or2_1 abstract view
.subckt sky130_fd_sc_hd__or2_1 A B VGND VNB VPB VPWR X
.ends

* Black-box entry subcircuit for sky130_fd_sc_hd__a31o_1 abstract view
.subckt sky130_fd_sc_hd__a31o_1 A1 A2 A3 B1 VGND VNB VPB VPWR X
.ends

* Black-box entry subcircuit for sky130_fd_sc_hd__or4_1 abstract view
.subckt sky130_fd_sc_hd__or4_1 A B C D VGND VNB VPB VPWR X
.ends

* Black-box entry subcircuit for sky130_fd_sc_hd__o21ba_1 abstract view
.subckt sky130_fd_sc_hd__o21ba_1 A1 A2 B1_N VGND VNB VPB VPWR X
.ends

* Black-box entry subcircuit for sky130_fd_sc_hd__a211o_1 abstract view
.subckt sky130_fd_sc_hd__a211o_1 A1 A2 B1 C1 VGND VNB VPB VPWR X
.ends

* Black-box entry subcircuit for sky130_fd_sc_hd__and2b_1 abstract view
.subckt sky130_fd_sc_hd__and2b_1 A_N B VGND VNB VPB VPWR X
.ends

* Black-box entry subcircuit for sky130_fd_sc_hd__xor2_1 abstract view
.subckt sky130_fd_sc_hd__xor2_1 A B VGND VNB VPB VPWR X
.ends

* Black-box entry subcircuit for sky130_fd_sc_hd__or3_2 abstract view
.subckt sky130_fd_sc_hd__or3_2 A B C VGND VNB VPB VPWR X
.ends

* Black-box entry subcircuit for sky130_fd_sc_hd__clkinvlp_4 abstract view
.subckt sky130_fd_sc_hd__clkinvlp_4 A VGND VNB VPB VPWR Y
.ends

* Black-box entry subcircuit for sky130_fd_sc_hd__o221a_1 abstract view
.subckt sky130_fd_sc_hd__o221a_1 A1 A2 B1 B2 C1 VGND VNB VPB VPWR X
.ends

* Black-box entry subcircuit for sky130_fd_sc_hd__or3b_1 abstract view
.subckt sky130_fd_sc_hd__or3b_1 A B C_N VGND VNB VPB VPWR X
.ends

* Black-box entry subcircuit for sky130_fd_sc_hd__a21oi_1 abstract view
.subckt sky130_fd_sc_hd__a21oi_1 A1 A2 B1 VGND VNB VPB VPWR Y
.ends

* Black-box entry subcircuit for sky130_fd_sc_hd__buf_1 abstract view
.subckt sky130_fd_sc_hd__buf_1 A VGND VNB VPB VPWR X
.ends

* Black-box entry subcircuit for sky130_fd_sc_hd__a311o_1 abstract view
.subckt sky130_fd_sc_hd__a311o_1 A1 A2 A3 B1 C1 VGND VNB VPB VPWR X
.ends

* Black-box entry subcircuit for sky130_fd_sc_hd__o31a_1 abstract view
.subckt sky130_fd_sc_hd__o31a_1 A1 A2 A3 B1 VGND VNB VPB VPWR X
.ends

* Black-box entry subcircuit for sky130_fd_sc_hd__a21bo_1 abstract view
.subckt sky130_fd_sc_hd__a21bo_1 A1 A2 B1_N VGND VNB VPB VPWR X
.ends

* Black-box entry subcircuit for sky130_fd_sc_hd__a22oi_1 abstract view
.subckt sky130_fd_sc_hd__a22oi_1 A1 A2 B1 B2 VGND VNB VPB VPWR Y
.ends

* Black-box entry subcircuit for sky130_fd_sc_hd__or4b_1 abstract view
.subckt sky130_fd_sc_hd__or4b_1 A B C D_N VGND VNB VPB VPWR X
.ends

* Black-box entry subcircuit for sky130_fd_sc_hd__o311a_1 abstract view
.subckt sky130_fd_sc_hd__o311a_1 A1 A2 A3 B1 C1 VGND VNB VPB VPWR X
.ends

* Black-box entry subcircuit for sky130_fd_sc_hd__nand3_1 abstract view
.subckt sky130_fd_sc_hd__nand3_1 A B C VGND VNB VPB VPWR Y
.ends

* Black-box entry subcircuit for sky130_fd_sc_hd__clkbuf_1 abstract view
.subckt sky130_fd_sc_hd__clkbuf_1 A VGND VNB VPB VPWR X
.ends

* Black-box entry subcircuit for sky130_fd_sc_hd__o22a_1 abstract view
.subckt sky130_fd_sc_hd__o22a_1 A1 A2 B1 B2 VGND VNB VPB VPWR X
.ends

* Black-box entry subcircuit for sky130_fd_sc_hd__mux2_1 abstract view
.subckt sky130_fd_sc_hd__mux2_1 A0 A1 S VGND VNB VPB VPWR X
.ends

* Black-box entry subcircuit for sky130_fd_sc_hd__nand4_1 abstract view
.subckt sky130_fd_sc_hd__nand4_1 A B C D VGND VNB VPB VPWR Y
.ends

* Black-box entry subcircuit for sky130_fd_sc_hd__and4_1 abstract view
.subckt sky130_fd_sc_hd__and4_1 A B C D VGND VNB VPB VPWR X
.ends

* Black-box entry subcircuit for sky130_fd_sc_hd__or4_4 abstract view
.subckt sky130_fd_sc_hd__or4_4 A B C D VGND VNB VPB VPWR X
.ends

* Black-box entry subcircuit for sky130_fd_sc_hd__a32o_1 abstract view
.subckt sky130_fd_sc_hd__a32o_1 A1 A2 A3 B1 B2 VGND VNB VPB VPWR X
.ends

* Black-box entry subcircuit for sky130_fd_sc_hd__a21oi_2 abstract view
.subckt sky130_fd_sc_hd__a21oi_2 A1 A2 B1 VGND VNB VPB VPWR Y
.ends

* Black-box entry subcircuit for sky130_fd_sc_hd__clkbuf_2 abstract view
.subckt sky130_fd_sc_hd__clkbuf_2 A VGND VNB VPB VPWR X
.ends

* Black-box entry subcircuit for sky130_fd_sc_hd__and3b_1 abstract view
.subckt sky130_fd_sc_hd__and3b_1 A_N B C VGND VNB VPB VPWR X
.ends

* Black-box entry subcircuit for sky130_fd_sc_hd__o211ai_1 abstract view
.subckt sky130_fd_sc_hd__o211ai_1 A1 A2 B1 C1 VGND VNB VPB VPWR Y
.ends

* Black-box entry subcircuit for sky130_fd_sc_hd__nand2_2 abstract view
.subckt sky130_fd_sc_hd__nand2_2 A B VGND VNB VPB VPWR Y
.ends

* Black-box entry subcircuit for sky130_fd_sc_hd__dfxtp_2 abstract view
.subckt sky130_fd_sc_hd__dfxtp_2 CLK D VGND VNB VPB VPWR Q
.ends

* Black-box entry subcircuit for sky130_fd_sc_hd__o31ai_1 abstract view
.subckt sky130_fd_sc_hd__o31ai_1 A1 A2 A3 B1 VGND VNB VPB VPWR Y
.ends

* Black-box entry subcircuit for sky130_fd_sc_hd__or2b_1 abstract view
.subckt sky130_fd_sc_hd__or2b_1 A B_N VGND VNB VPB VPWR X
.ends

.subckt mult_32 A[0] A[10] A[11] A[12] A[13] A[14] A[15] A[1] A[2] A[3] A[4] A[5]
+ A[6] A[7] A[8] A[9] B[0] B[10] B[11] B[12] B[13] B[14] B[15] B[1] B[2] B[3] B[4]
+ B[5] B[6] B[7] B[8] B[9] VGND VPWR clk done init pp[0] pp[10] pp[11] pp[12] pp[13]
+ pp[14] pp[15] pp[16] pp[17] pp[18] pp[19] pp[1] pp[20] pp[21] pp[22] pp[23] pp[24]
+ pp[25] pp[26] pp[27] pp[28] pp[29] pp[2] pp[30] pp[31] pp[3] pp[4] pp[5] pp[6] pp[7]
+ pp[8] pp[9] rst
X_0895__34 clknet_1_0__leaf__0461_ VGND VGND VPWR VPWR net101 sky130_fd_sc_hd__inv_2
XFILLER_0_23_225 VGND VGND VPWR VPWR sky130_fd_sc_hd__fill_2
XFILLER_0_1_141 VGND VGND VPWR VPWR sky130_fd_sc_hd__fill_1
X_0985_ net71 _0083_ VGND VGND VPWR VPWR net61 sky130_fd_sc_hd__dfxtp_1
XTAP_TAPCELL_ROW_6_107 VGND VPWR sky130_fd_sc_hd__tapvpwrvgnd_1
XFILLER_0_1_163 VGND VGND VPWR VPWR sky130_fd_sc_hd__decap_4
XTAP_TAPCELL_ROW_37_231 VGND VPWR sky130_fd_sc_hd__tapvpwrvgnd_1
XTAP_TAPCELL_ROW_20_164 VGND VPWR sky130_fd_sc_hd__tapvpwrvgnd_1
X_0770_ _0243_ _0389_ control0.add VGND VGND VPWR VPWR _0390_ sky130_fd_sc_hd__o21a_1
X_0874__15 clknet_1_0__leaf__0459_ VGND VGND VPWR VPWR net82 sky130_fd_sc_hd__inv_2
X_0968_ net34 control0.state\[1\] control0.state\[0\] VGND VGND VPWR VPWR _0486_ sky130_fd_sc_hd__nor3_1
XFILLER_0_24_94 VGND VGND VPWR VPWR sky130_fd_sc_hd__fill_1
XFILLER_0_37_169 VGND VGND VPWR VPWR sky130_fd_sc_hd__fill_2
XFILLER_0_0_29 VPWR VGND VPWR VGND sky130_ef_sc_hd__decap_12
X_0822_ acc0.A\[6\] net64 VGND VGND VPWR VPWR _0430_ sky130_fd_sc_hd__nor2_1
X_0753_ _0222_ _0233_ _0231_ _0375_ _0343_ VGND VGND VPWR VPWR _0377_ sky130_fd_sc_hd__a41o_1
XFILLER_0_3_225 VGND VGND VPWR VPWR sky130_fd_sc_hd__fill_2
X_0684_ acc0.A\[27\] net55 VGND VGND VPWR VPWR _0316_ sky130_fd_sc_hd__and2_1
XFILLER_0_36_6 VPWR VGND VPWR VGND sky130_ef_sc_hd__decap_12
XFILLER_0_19_50 VGND VGND VPWR VPWR sky130_fd_sc_hd__decap_6
XPHY_EDGE_ROW_8_Left_47 VGND VGND VPWR VPWR sky130_fd_sc_hd__decap_3
X_1021_ net107 _0119_ VGND VGND VPWR VPWR acc0.A\[21\] sky130_fd_sc_hd__dfxtp_1
X_0805_ _0281_ _0286_ _0402_ VGND VGND VPWR VPWR _0417_ sky130_fd_sc_hd__and3_1
X_0598_ _0226_ _0227_ _0229_ VGND VGND VPWR VPWR _0230_ sky130_fd_sc_hd__o21a_1
X_0736_ _0219_ _0362_ _0363_ _0181_ VGND VGND VPWR VPWR _0107_ sky130_fd_sc_hd__a211oi_1
Xclkbuf_1_0__f__0459_ clknet_0__0459_ VGND VGND VPWR VPWR clknet_1_0__leaf__0459_
+ sky130_fd_sc_hd__clkbuf_16
X_0667_ acc0.A\[13\] net40 VGND VGND VPWR VPWR _0299_ sky130_fd_sc_hd__nand2_1
XFILLER_0_30_164 VGND VGND VPWR VPWR sky130_fd_sc_hd__fill_1
Xhold41 acc0.A\[10\] VGND VGND VPWR VPWR net188 sky130_fd_sc_hd__dlygate4sd3_1
Xhold30 _0121_ VGND VGND VPWR VPWR net177 sky130_fd_sc_hd__dlygate4sd3_1
Xhold52 acc0.A\[24\] VGND VGND VPWR VPWR net199 sky130_fd_sc_hd__dlygate4sd3_1
Xhold63 acc0.A\[25\] VGND VGND VPWR VPWR net210 sky130_fd_sc_hd__dlygate4sd3_1
Xhold74 acc0.A\[16\] VGND VGND VPWR VPWR net221 sky130_fd_sc_hd__dlygate4sd3_1
XFILLER_0_30_197 VPWR VGND VPWR VGND sky130_ef_sc_hd__decap_12
Xhold96 net50 VGND VGND VPWR VPWR net243 sky130_fd_sc_hd__dlygate4sd3_1
Xhold85 _0164_ VGND VGND VPWR VPWR net232 sky130_fd_sc_hd__dlygate4sd3_1
XFILLER_0_13_109 VGND VGND VPWR VPWR sky130_fd_sc_hd__decap_3
X_0521_ net230 _0179_ _0192_ VGND VGND VPWR VPWR _0151_ sky130_fd_sc_hd__a21o_1
XFILLER_0_21_164 VGND VGND VPWR VPWR sky130_fd_sc_hd__decap_4
X_1004_ net90 _0102_ VGND VGND VPWR VPWR net50 sky130_fd_sc_hd__dfxtp_1
XFILLER_0_29_220 VGND VGND VPWR VPWR sky130_fd_sc_hd__decap_4
XFILLER_0_12_197 VGND VGND VPWR VPWR sky130_fd_sc_hd__decap_4
X_0719_ control0.add VGND VGND VPWR VPWR _0350_ sky130_fd_sc_hd__buf_2
Xoutput64 net64 VGND VGND VPWR VPWR pp[6] sky130_fd_sc_hd__clkbuf_4
Xoutput53 net53 VGND VGND VPWR VPWR pp[25] sky130_fd_sc_hd__buf_2
Xoutput42 net42 VGND VGND VPWR VPWR pp[15] sky130_fd_sc_hd__buf_2
XFILLER_0_37_39 VPWR VGND VPWR VGND sky130_ef_sc_hd__decap_12
X_0504_ _0182_ VGND VGND VPWR VPWR _0183_ sky130_fd_sc_hd__clkbuf_4
XFILLER_0_27_61 VGND VGND VPWR VPWR sky130_fd_sc_hd__fill_1
XFILLER_0_17_223 VGND VGND VPWR VPWR sky130_fd_sc_hd__fill_1
XFILLER_0_7_60 VGND VGND VPWR VPWR sky130_fd_sc_hd__decap_4
XFILLER_0_4_161 VGND VGND VPWR VPWR sky130_fd_sc_hd__decap_3
XPHY_EDGE_ROW_37_Left_76 VGND VGND VPWR VPWR sky130_fd_sc_hd__decap_3
XFILLER_0_13_85 VGND VGND VPWR VPWR sky130_fd_sc_hd__decap_6
XTAP_TAPCELL_ROW_14_140 VGND VPWR sky130_fd_sc_hd__tapvpwrvgnd_1
X_0984_ net70 _0082_ VGND VGND VPWR VPWR net58 sky130_fd_sc_hd__dfxtp_1
XFILLER_0_1_153 VGND VGND VPWR VPWR sky130_fd_sc_hd__fill_2
XFILLER_0_14_226 VGND VGND VPWR VPWR sky130_fd_sc_hd__fill_1
XFILLER_0_38_93 VGND VGND VPWR VPWR sky130_fd_sc_hd__fill_1
XTAP_TAPCELL_ROW_6_108 VGND VPWR sky130_fd_sc_hd__tapvpwrvgnd_1
XTAP_TAPCELL_ROW_37_232 VGND VPWR sky130_fd_sc_hd__tapvpwrvgnd_1
XTAP_TAPCELL_ROW_20_165 VGND VPWR sky130_fd_sc_hd__tapvpwrvgnd_1
XFILLER_0_34_18 VGND VGND VPWR VPWR sky130_fd_sc_hd__decap_8
XFILLER_0_34_29 VPWR VGND VPWR VGND sky130_ef_sc_hd__decap_12
X_0967_ control0.state\[0\] control0.state\[2\] _0476_ control0.state\[1\] VGND VGND
+ VPWR VPWR _0485_ sky130_fd_sc_hd__or4b_4
X_0937__72 clknet_1_0__leaf__0465_ VGND VGND VPWR VPWR net139 sky130_fd_sc_hd__inv_2
XPHY_EDGE_ROW_12_Right_12 VGND VGND VPWR VPWR sky130_fd_sc_hd__decap_3
XFILLER_0_4_83 VGND VGND VPWR VPWR sky130_fd_sc_hd__fill_1
XPHY_EDGE_ROW_21_Right_21 VGND VGND VPWR VPWR sky130_fd_sc_hd__decap_3
XPHY_EDGE_ROW_30_Right_30 VGND VGND VPWR VPWR sky130_fd_sc_hd__decap_3
X_0821_ _0251_ _0252_ VGND VGND VPWR VPWR _0429_ sky130_fd_sc_hd__nand2_1
X_0752_ _0222_ _0375_ _0234_ VGND VGND VPWR VPWR _0376_ sky130_fd_sc_hd__a21boi_1
X_0683_ _0313_ _0314_ VGND VGND VPWR VPWR _0315_ sky130_fd_sc_hd__nand2_1
XPHY_EDGE_ROW_24_Left_63 VGND VGND VPWR VPWR sky130_fd_sc_hd__decap_3
XFILLER_0_19_84 VGND VGND VPWR VPWR sky130_fd_sc_hd__fill_1
XFILLER_0_29_6 VGND VGND VPWR VPWR sky130_fd_sc_hd__fill_1
XFILLER_0_19_137 VGND VGND VPWR VPWR sky130_fd_sc_hd__decap_8
XFILLER_0_35_94 VGND VGND VPWR VPWR sky130_fd_sc_hd__fill_1
X_0916__53 clknet_1_1__leaf__0463_ VGND VGND VPWR VPWR net120 sky130_fd_sc_hd__inv_2
X_1020_ net106 _0118_ VGND VGND VPWR VPWR acc0.A\[20\] sky130_fd_sc_hd__dfxtp_1
X_0931__67 clknet_1_0__leaf__0464_ VGND VGND VPWR VPWR net134 sky130_fd_sc_hd__inv_2
X_0735_ _0350_ net224 VGND VGND VPWR VPWR _0363_ sky130_fd_sc_hd__nor2_1
Xclkbuf_1_0__f__0458_ clknet_0__0458_ VGND VGND VPWR VPWR clknet_1_0__leaf__0458_
+ sky130_fd_sc_hd__clkbuf_16
X_0804_ _0347_ _0415_ _0416_ _0399_ VGND VGND VPWR VPWR _0092_ sky130_fd_sc_hd__o211a_1
X_0597_ _0228_ VGND VGND VPWR VPWR _0229_ sky130_fd_sc_hd__inv_2
X_0666_ acc0.A\[12\] net39 VGND VGND VPWR VPWR _0298_ sky130_fd_sc_hd__nand2_1
Xhold42 _0155_ VGND VGND VPWR VPWR net189 sky130_fd_sc_hd__dlygate4sd3_1
Xhold31 acc0.A\[8\] VGND VGND VPWR VPWR net178 sky130_fd_sc_hd__dlygate4sd3_1
Xhold97 net54 VGND VGND VPWR VPWR net244 sky130_fd_sc_hd__dlygate4sd3_1
Xhold20 control0.count\[3\] VGND VGND VPWR VPWR net167 sky130_fd_sc_hd__dlygate4sd3_1
Xhold53 _0123_ VGND VGND VPWR VPWR net200 sky130_fd_sc_hd__dlygate4sd3_1
Xhold64 acc0.A\[19\] VGND VGND VPWR VPWR net211 sky130_fd_sc_hd__dlygate4sd3_1
Xhold86 net61 VGND VGND VPWR VPWR net233 sky130_fd_sc_hd__dlygate4sd3_1
Xhold75 net58 VGND VGND VPWR VPWR net222 sky130_fd_sc_hd__dlygate4sd3_1
X_0520_ _0180_ net14 _0186_ net168 VGND VGND VPWR VPWR _0192_ sky130_fd_sc_hd__a22o_1
XFILLER_0_21_198 VGND VGND VPWR VPWR sky130_fd_sc_hd__decap_8
X_1003_ net89 _0101_ VGND VGND VPWR VPWR net49 sky130_fd_sc_hd__dfxtp_1
XFILLER_0_16_63 VGND VGND VPWR VPWR sky130_fd_sc_hd__fill_1
XFILLER_0_16_85 VGND VGND VPWR VPWR sky130_fd_sc_hd__fill_1
XFILLER_0_16_96 VGND VGND VPWR VPWR sky130_fd_sc_hd__fill_2
XPHY_EDGE_ROW_6_Right_6 VGND VGND VPWR VPWR sky130_fd_sc_hd__decap_3
X_0718_ _0337_ _0348_ VGND VGND VPWR VPWR _0349_ sky130_fd_sc_hd__xnor2_1
X_0649_ acc0.A\[10\] net37 VGND VGND VPWR VPWR _0281_ sky130_fd_sc_hd__nand2_1
X_0910__48 clknet_1_1__leaf__0462_ VGND VGND VPWR VPWR net115 sky130_fd_sc_hd__inv_2
XPHY_EDGE_ROW_11_Left_50 VGND VGND VPWR VPWR sky130_fd_sc_hd__decap_3
Xoutput65 net65 VGND VGND VPWR VPWR pp[7] sky130_fd_sc_hd__clkbuf_4
Xoutput54 net54 VGND VGND VPWR VPWR pp[26] sky130_fd_sc_hd__buf_2
Xoutput43 net43 VGND VGND VPWR VPWR pp[16] sky130_fd_sc_hd__buf_2
X_0503_ _0180_ control0.sh VGND VGND VPWR VPWR _0182_ sky130_fd_sc_hd__nor2_1
XFILLER_0_11_6 VPWR VGND VPWR VGND sky130_ef_sc_hd__decap_12
XFILLER_0_4_195 VGND VGND VPWR VPWR sky130_fd_sc_hd__fill_1
XTAP_TAPCELL_ROW_23_174 VGND VPWR sky130_fd_sc_hd__tapvpwrvgnd_1
XTAP_TAPCELL_ROW_14_141 VGND VPWR sky130_fd_sc_hd__tapvpwrvgnd_1
X_0983_ net69 _0081_ VGND VGND VPWR VPWR net47 sky130_fd_sc_hd__dfxtp_1
XTAP_TAPCELL_ROW_6_109 VGND VPWR sky130_fd_sc_hd__tapvpwrvgnd_1
XFILLER_0_38_83 VGND VGND VPWR VPWR sky130_fd_sc_hd__fill_1
XTAP_TAPCELL_ROW_37_233 VGND VPWR sky130_fd_sc_hd__tapvpwrvgnd_1
XFILLER_0_6_224 VGND VGND VPWR VPWR sky130_fd_sc_hd__decap_3
X_0966_ _0482_ _0483_ net236 VGND VGND VPWR VPWR _0484_ sky130_fd_sc_hd__o21ai_1
XTAP_TAPCELL_ROW_31_206 VGND VPWR sky130_fd_sc_hd__tapvpwrvgnd_1
XFILLER_0_9_18 VGND VGND VPWR VPWR sky130_fd_sc_hd__decap_8
X_0751_ _0225_ _0227_ _0374_ VGND VGND VPWR VPWR _0375_ sky130_fd_sc_hd__or3_1
X_0820_ _0369_ net214 _0428_ _0399_ VGND VGND VPWR VPWR _0088_ sky130_fd_sc_hd__o211a_1
X_0682_ acc0.A\[25\] net53 VGND VGND VPWR VPWR _0314_ sky130_fd_sc_hd__or2_1
XTAP_TAPCELL_ROW_0_80 VGND VPWR sky130_fd_sc_hd__tapvpwrvgnd_1
XFILLER_0_19_63 VGND VGND VPWR VPWR sky130_fd_sc_hd__decap_8
XFILLER_0_35_84 VGND VGND VPWR VPWR sky130_fd_sc_hd__fill_2
XFILLER_0_19_116 VGND VGND VPWR VPWR sky130_fd_sc_hd__decap_4
X_0949_ control0.state\[0\] _0468_ VGND VGND VPWR VPWR _0469_ sky130_fd_sc_hd__and2_1
XFILLER_0_18_193 VGND VGND VPWR VPWR sky130_fd_sc_hd__decap_3
X_0734_ _0318_ _0361_ VGND VGND VPWR VPWR _0362_ sky130_fd_sc_hd__xnor2_1
Xclkbuf_1_0__f__0457_ clknet_0__0457_ VGND VGND VPWR VPWR clknet_1_0__leaf__0457_
+ sky130_fd_sc_hd__clkbuf_16
XFILLER_0_24_141 VGND VGND VPWR VPWR sky130_fd_sc_hd__fill_1
XFILLER_0_24_152 VGND VGND VPWR VPWR sky130_fd_sc_hd__decap_4
X_0665_ acc0.A\[13\] net40 VGND VGND VPWR VPWR _0297_ sky130_fd_sc_hd__nor2_1
X_0803_ _0218_ net39 VGND VGND VPWR VPWR _0416_ sky130_fd_sc_hd__or2_1
X_0596_ acc0.A\[21\] net49 VGND VGND VPWR VPWR _0228_ sky130_fd_sc_hd__and2_1
XFILLER_0_1_52 VGND VGND VPWR VPWR sky130_fd_sc_hd__decap_4
Xhold32 _0153_ VGND VGND VPWR VPWR net179 sky130_fd_sc_hd__dlygate4sd3_1
Xhold21 acc0.A\[7\] VGND VGND VPWR VPWR net168 sky130_fd_sc_hd__dlygate4sd3_1
Xhold43 acc0.A\[28\] VGND VGND VPWR VPWR net190 sky130_fd_sc_hd__dlygate4sd3_1
Xhold76 net46 VGND VGND VPWR VPWR net223 sky130_fd_sc_hd__dlygate4sd3_1
Xhold54 comp0.B\[1\] VGND VGND VPWR VPWR net201 sky130_fd_sc_hd__dlygate4sd3_1
Xhold87 net36 VGND VGND VPWR VPWR net234 sky130_fd_sc_hd__dlygate4sd3_1
Xhold98 net40 VGND VGND VPWR VPWR net245 sky130_fd_sc_hd__dlygate4sd3_1
Xhold10 comp0.B\[15\] VGND VGND VPWR VPWR net157 sky130_fd_sc_hd__dlygate4sd3_1
Xhold65 net65 VGND VGND VPWR VPWR net212 sky130_fd_sc_hd__dlygate4sd3_1
XFILLER_0_38_200 VPWR VGND VPWR VGND sky130_ef_sc_hd__decap_12
XFILLER_0_21_177 VGND VGND VPWR VPWR sky130_fd_sc_hd__decap_3
X_1002_ net88 _0100_ VGND VGND VPWR VPWR net48 sky130_fd_sc_hd__dfxtp_1
XFILLER_0_8_138 VGND VGND VPWR VPWR sky130_fd_sc_hd__fill_2
XFILLER_0_32_85 VGND VGND VPWR VPWR sky130_fd_sc_hd__fill_2
X_0717_ _0221_ _0333_ _0334_ _0335_ VGND VGND VPWR VPWR _0348_ sky130_fd_sc_hd__a31o_1
X_0648_ _0276_ _0277_ _0278_ _0279_ VGND VGND VPWR VPWR _0280_ sky130_fd_sc_hd__or4_1
X_0579_ net187 _0183_ _0217_ net211 VGND VGND VPWR VPWR _0118_ sky130_fd_sc_hd__a22o_1
XFILLER_0_35_225 VGND VGND VPWR VPWR sky130_fd_sc_hd__fill_2
Xoutput66 net66 VGND VGND VPWR VPWR pp[8] sky130_fd_sc_hd__clkbuf_4
Xoutput55 net55 VGND VGND VPWR VPWR pp[27] sky130_fd_sc_hd__buf_2
Xoutput44 net44 VGND VGND VPWR VPWR pp[17] sky130_fd_sc_hd__buf_2
X_0859__1 clknet_1_0__leaf__0458_ VGND VGND VPWR VPWR net68 sky130_fd_sc_hd__inv_2
XFILLER_0_5_108 VGND VGND VPWR VPWR sky130_fd_sc_hd__decap_4
X_0502_ _0180_ VGND VGND VPWR VPWR _0181_ sky130_fd_sc_hd__clkbuf_4
XFILLER_0_27_52 VGND VGND VPWR VPWR sky130_fd_sc_hd__decap_4
XTAP_TAPCELL_ROW_17_150 VGND VPWR sky130_fd_sc_hd__tapvpwrvgnd_1
XFILLER_0_17_203 VGND VGND VPWR VPWR sky130_fd_sc_hd__fill_2
XFILLER_0_4_141 VPWR VGND VPWR VGND sky130_ef_sc_hd__decap_12
XFILLER_0_17_214 VGND VGND VPWR VPWR sky130_fd_sc_hd__fill_1
XFILLER_0_17_225 VGND VGND VPWR VPWR sky130_fd_sc_hd__fill_2
XTAP_TAPCELL_ROW_9_118 VGND VPWR sky130_fd_sc_hd__tapvpwrvgnd_1
XTAP_TAPCELL_ROW_23_175 VGND VPWR sky130_fd_sc_hd__tapvpwrvgnd_1
X_0886__26 clknet_1_1__leaf__0460_ VGND VGND VPWR VPWR net93 sky130_fd_sc_hd__inv_2
XFILLER_0_13_76 VGND VGND VPWR VPWR sky130_fd_sc_hd__fill_2
X_0982_ net68 _0080_ VGND VGND VPWR VPWR net36 sky130_fd_sc_hd__dfxtp_1
XFILLER_0_24_64 VGND VGND VPWR VPWR sky130_fd_sc_hd__decap_4
X_0965_ control0.count\[3\] _0478_ VGND VGND VPWR VPWR _0483_ sky130_fd_sc_hd__xnor2_1
XFILLER_0_4_85 VGND VGND VPWR VPWR sky130_fd_sc_hd__decap_6
XFILLER_0_28_139 VGND VGND VPWR VPWR sky130_fd_sc_hd__fill_1
XTAP_TAPCELL_ROW_31_207 VGND VPWR sky130_fd_sc_hd__tapvpwrvgnd_1
X_0681_ acc0.A\[25\] net53 VGND VGND VPWR VPWR _0313_ sky130_fd_sc_hd__nand2_1
X_0750_ _0226_ _0229_ _0373_ VGND VGND VPWR VPWR _0374_ sky130_fd_sc_hd__and3_1
XFILLER_0_10_88 VPWR VGND VPWR VGND sky130_ef_sc_hd__decap_12
XTAP_TAPCELL_ROW_0_81 VGND VPWR sky130_fd_sc_hd__tapvpwrvgnd_1
XFILLER_0_35_30 VPWR VGND VPWR VGND sky130_ef_sc_hd__decap_12
XFILLER_0_35_52 VGND VGND VPWR VPWR sky130_fd_sc_hd__decap_4
X_0948_ net34 control0.state\[2\] VGND VGND VPWR VPWR _0468_ sky130_fd_sc_hd__nor2_1
XFILLER_0_0_209 VPWR VGND VPWR VGND sky130_ef_sc_hd__decap_12
XFILLER_0_33_197 VPWR VGND VPWR VGND sky130_ef_sc_hd__decap_12
X_0802_ _0404_ _0414_ VGND VGND VPWR VPWR _0415_ sky130_fd_sc_hd__and2_1
X_0733_ _0321_ _0360_ _0319_ VGND VGND VPWR VPWR _0361_ sky130_fd_sc_hd__o21ba_1
XFILLER_0_24_197 VGND VGND VPWR VPWR sky130_fd_sc_hd__fill_1
X_0664_ _0281_ _0284_ _0285_ VGND VGND VPWR VPWR _0296_ sky130_fd_sc_hd__o21a_1
X_0595_ acc0.A\[21\] net49 VGND VGND VPWR VPWR _0227_ sky130_fd_sc_hd__nor2_1
XFILLER_0_34_6 VPWR VGND VPWR VGND sky130_ef_sc_hd__decap_12
Xhold22 _0152_ VGND VGND VPWR VPWR net169 sky130_fd_sc_hd__dlygate4sd3_1
XFILLER_0_15_197 VGND VGND VPWR VPWR sky130_fd_sc_hd__fill_1
Xhold11 _0144_ VGND VGND VPWR VPWR net158 sky130_fd_sc_hd__dlygate4sd3_1
XFILLER_0_30_189 VGND VGND VPWR VPWR sky130_fd_sc_hd__fill_1
Xhold66 net49 VGND VGND VPWR VPWR net213 sky130_fd_sc_hd__dlygate4sd3_1
Xhold44 _0127_ VGND VGND VPWR VPWR net191 sky130_fd_sc_hd__dlygate4sd3_1
Xhold77 net55 VGND VGND VPWR VPWR net224 sky130_fd_sc_hd__dlygate4sd3_1
Xhold55 _0130_ VGND VGND VPWR VPWR net202 sky130_fd_sc_hd__dlygate4sd3_1
Xhold33 comp0.B\[8\] VGND VGND VPWR VPWR net180 sky130_fd_sc_hd__dlygate4sd3_1
Xhold99 net38 VGND VGND VPWR VPWR net246 sky130_fd_sc_hd__dlygate4sd3_1
Xhold88 net64 VGND VGND VPWR VPWR net235 sky130_fd_sc_hd__dlygate4sd3_1
XFILLER_0_38_212 VPWR VGND VPWR VGND sky130_ef_sc_hd__decap_12
X_1001_ net87 _0099_ VGND VGND VPWR VPWR net46 sky130_fd_sc_hd__dfxtp_1
XFILLER_0_12_101 VGND VGND VPWR VPWR sky130_fd_sc_hd__fill_1
XFILLER_0_12_123 VPWR VGND VPWR VGND sky130_ef_sc_hd__decap_12
XFILLER_0_12_178 VGND VGND VPWR VPWR sky130_fd_sc_hd__decap_3
X_0578_ net150 _0183_ _0217_ net187 VGND VGND VPWR VPWR _0119_ sky130_fd_sc_hd__a22o_1
X_0647_ acc0.A\[12\] net39 VGND VGND VPWR VPWR _0279_ sky130_fd_sc_hd__xnor2_1
X_0716_ _0346_ VGND VGND VPWR VPWR _0347_ sky130_fd_sc_hd__clkbuf_4
XFILLER_0_35_204 VPWR VGND VPWR VGND sky130_ef_sc_hd__decap_12
XFILLER_0_7_194 VGND VGND VPWR VPWR sky130_fd_sc_hd__decap_3
Xoutput67 net67 VGND VGND VPWR VPWR pp[9] sky130_fd_sc_hd__clkbuf_4
Xoutput56 net56 VGND VGND VPWR VPWR pp[28] sky130_fd_sc_hd__buf_2
Xoutput45 net45 VGND VGND VPWR VPWR pp[18] sky130_fd_sc_hd__buf_2
X_0501_ control0.reset VGND VGND VPWR VPWR _0180_ sky130_fd_sc_hd__buf_2
XFILLER_0_27_97 VGND VGND VPWR VPWR sky130_fd_sc_hd__fill_2
XTAP_TAPCELL_ROW_17_151 VGND VPWR sky130_fd_sc_hd__tapvpwrvgnd_1
XFILLER_0_4_153 VGND VGND VPWR VPWR sky130_fd_sc_hd__decap_8
XTAP_TAPCELL_ROW_9_119 VGND VPWR sky130_fd_sc_hd__tapvpwrvgnd_1
XTAP_TAPCELL_ROW_23_176 VGND VPWR sky130_fd_sc_hd__tapvpwrvgnd_1
X_0861__3 clknet_1_0__leaf__0458_ VGND VGND VPWR VPWR net70 sky130_fd_sc_hd__inv_2
X_0981_ net167 _0466_ _0490_ _0488_ VGND VGND VPWR VPWR _0170_ sky130_fd_sc_hd__a22o_1
XFILLER_0_38_85 VGND VGND VPWR VPWR sky130_fd_sc_hd__fill_2
XFILLER_0_38_41 VGND VGND VPWR VPWR sky130_fd_sc_hd__decap_8
XFILLER_0_1_167 VGND VGND VPWR VPWR sky130_fd_sc_hd__fill_1
XFILLER_0_6_204 VPWR VGND VPWR VGND sky130_ef_sc_hd__decap_12
X_0964_ _0480_ _0481_ VGND VGND VPWR VPWR _0482_ sky130_fd_sc_hd__nor2_1
XFILLER_0_24_43 VGND VGND VPWR VPWR sky130_fd_sc_hd__fill_1
X_0943__78 clknet_1_1__leaf__0465_ VGND VGND VPWR VPWR net145 sky130_fd_sc_hd__inv_2
X_0928__64 clknet_1_1__leaf__0464_ VGND VGND VPWR VPWR net131 sky130_fd_sc_hd__inv_2
XFILLER_0_28_129 VGND VGND VPWR VPWR sky130_fd_sc_hd__decap_3
XTAP_TAPCELL_ROW_31_208 VGND VPWR sky130_fd_sc_hd__tapvpwrvgnd_1
X_0680_ _0294_ _0305_ _0311_ _0238_ VGND VGND VPWR VPWR _0312_ sky130_fd_sc_hd__a211o_1
XTAP_TAPCELL_ROW_0_82 VGND VPWR sky130_fd_sc_hd__tapvpwrvgnd_1
X_0870__11 clknet_1_1__leaf__0459_ VGND VGND VPWR VPWR net78 sky130_fd_sc_hd__inv_2
XFILLER_0_35_42 VGND VGND VPWR VPWR sky130_fd_sc_hd__decap_6
X_0947_ control0.state\[2\] _0466_ VGND VGND VPWR VPWR _0467_ sky130_fd_sc_hd__nor2_1
Xclkload0 clknet_1_0__leaf_clk VGND VGND VPWR VPWR clkload0/X sky130_fd_sc_hd__clkbuf_4
XFILLER_0_33_154 VPWR VGND VPWR VGND sky130_ef_sc_hd__decap_12
XFILLER_0_33_176 VPWR VGND VPWR VGND sky130_ef_sc_hd__decap_12
XPHY_EDGE_ROW_28_Left_67 VGND VGND VPWR VPWR sky130_fd_sc_hd__decap_3
XFILLER_0_21_33 VGND VGND VPWR VPWR sky130_fd_sc_hd__decap_3
X_0801_ _0279_ _0403_ VGND VGND VPWR VPWR _0414_ sky130_fd_sc_hd__nand2_1
X_0732_ _0324_ _0359_ _0313_ _0328_ VGND VGND VPWR VPWR _0360_ sky130_fd_sc_hd__a31o_1
X_0907__45 clknet_1_0__leaf__0462_ VGND VGND VPWR VPWR net112 sky130_fd_sc_hd__inv_2
X_0594_ acc0.A\[20\] net48 VGND VGND VPWR VPWR _0226_ sky130_fd_sc_hd__nand2_1
XFILLER_0_24_176 VGND VGND VPWR VPWR sky130_fd_sc_hd__decap_3
XFILLER_0_24_187 VGND VGND VPWR VPWR sky130_fd_sc_hd__decap_3
X_0663_ _0288_ _0290_ VGND VGND VPWR VPWR _0295_ sky130_fd_sc_hd__and2b_1
X_0922__59 clknet_1_0__leaf__0463_ VGND VGND VPWR VPWR net126 sky130_fd_sc_hd__inv_2
XFILLER_0_27_6 VGND VGND VPWR VPWR sky130_fd_sc_hd__decap_6
XFILLER_0_15_110 VGND VGND VPWR VPWR sky130_fd_sc_hd__fill_2
XFILLER_0_15_121 VGND VGND VPWR VPWR sky130_fd_sc_hd__fill_1
Xhold34 acc0.A\[9\] VGND VGND VPWR VPWR net181 sky130_fd_sc_hd__dlygate4sd3_1
Xhold45 acc0.A\[11\] VGND VGND VPWR VPWR net192 sky130_fd_sc_hd__dlygate4sd3_1
Xhold12 net35 VGND VGND VPWR VPWR net159 sky130_fd_sc_hd__dlygate4sd3_1
Xhold56 comp0.B\[2\] VGND VGND VPWR VPWR net203 sky130_fd_sc_hd__dlygate4sd3_1
Xhold23 acc0.A\[3\] VGND VGND VPWR VPWR net170 sky130_fd_sc_hd__dlygate4sd3_1
Xhold89 control0.state\[2\] VGND VGND VPWR VPWR net236 sky130_fd_sc_hd__dlygate4sd3_1
Xhold78 net60 VGND VGND VPWR VPWR net225 sky130_fd_sc_hd__dlygate4sd3_1
Xhold67 net66 VGND VGND VPWR VPWR net214 sky130_fd_sc_hd__dlygate4sd3_1
X_1000_ net86 _0098_ VGND VGND VPWR VPWR net45 sky130_fd_sc_hd__dfxtp_1
XFILLER_0_12_135 VGND VGND VPWR VPWR sky130_fd_sc_hd__decap_4
X_0715_ _0343_ VGND VGND VPWR VPWR _0346_ sky130_fd_sc_hd__clkbuf_4
X_0577_ acc0.A\[22\] _0183_ _0217_ net150 VGND VGND VPWR VPWR _0120_ sky130_fd_sc_hd__a22o_1
X_0646_ acc0.A\[13\] net40 VGND VGND VPWR VPWR _0278_ sky130_fd_sc_hd__xnor2_1
XFILLER_0_35_216 VGND VGND VPWR VPWR sky130_fd_sc_hd__decap_8
Xoutput57 net57 VGND VGND VPWR VPWR pp[29] sky130_fd_sc_hd__buf_2
Xoutput35 net35 VGND VGND VPWR VPWR done sky130_fd_sc_hd__buf_2
Xoutput46 net46 VGND VGND VPWR VPWR pp[19] sky130_fd_sc_hd__buf_2
XPHY_EDGE_ROW_19_Right_19 VGND VGND VPWR VPWR sky130_fd_sc_hd__decap_3
X_0500_ _0178_ VGND VGND VPWR VPWR _0179_ sky130_fd_sc_hd__clkbuf_4
XPHY_EDGE_ROW_28_Right_28 VGND VGND VPWR VPWR sky130_fd_sc_hd__decap_3
XPHY_EDGE_ROW_37_Right_37 VGND VGND VPWR VPWR sky130_fd_sc_hd__decap_3
XFILLER_0_27_21 VGND VGND VPWR VPWR sky130_fd_sc_hd__fill_2
XTAP_TAPCELL_ROW_17_152 VGND VPWR sky130_fd_sc_hd__tapvpwrvgnd_1
XFILLER_0_4_110 VGND VGND VPWR VPWR sky130_fd_sc_hd__fill_2
XPHY_EDGE_ROW_15_Left_54 VGND VGND VPWR VPWR sky130_fd_sc_hd__decap_3
X_0629_ acc0.A\[2\] net58 VGND VGND VPWR VPWR _0261_ sky130_fd_sc_hd__and2_1
XTAP_TAPCELL_ROW_23_177 VGND VPWR sky130_fd_sc_hd__tapvpwrvgnd_1
X_0980_ _0483_ VGND VGND VPWR VPWR _0490_ sky130_fd_sc_hd__inv_2
XFILLER_0_1_113 VGND VGND VPWR VPWR sky130_fd_sc_hd__decap_6
XFILLER_0_1_135 VGND VGND VPWR VPWR sky130_fd_sc_hd__decap_6
XFILLER_0_1_179 VPWR VGND VPWR VGND sky130_ef_sc_hd__decap_12
XPHY_EDGE_ROW_0_Left_39 VGND VGND VPWR VPWR sky130_fd_sc_hd__decap_3
XFILLER_0_24_33 VGND VGND VPWR VPWR sky130_fd_sc_hd__fill_1
XFILLER_0_6_216 VGND VGND VPWR VPWR sky130_fd_sc_hd__decap_8